REMARK  23 active torsions:
REMARK  status: ('A' for Active; 'I' for Inactive)
REMARK    1  A    between atoms: N_1  and  CA_2 
REMARK    2  A    between atoms: C_3  and  CA_2 
REMARK    3  A    between atoms: CA_2  and  CB_5 
REMARK       I    between atoms: C_3  and  N_10 
REMARK    4  A    between atoms: SG_6  and  CB_5 
REMARK    5  A    between atoms: SG_6  and  C20_28 
REMARK    6  A    between atoms: N_10  and  CA_11 
REMARK    7  A    between atoms: C_12  and  CA_11 
REMARK    8  A    between atoms: CA_11  and  CB_14 
REMARK    9  A    between atoms: CB_14  and  OG_15 
REMARK   10  A    between atoms: C12_20  and  C13_21 
REMARK   11  A    between atoms: C13_21  and  C14_22 
REMARK   12  A    between atoms: C14_22  and  C15_23 
REMARK   13  A    between atoms: C15_23  and  C16_24 
REMARK   14  A    between atoms: C16_24  and  O17_25 
REMARK   15  A    between atoms: O17_25  and  C18_26 
REMARK   16  A    between atoms: C18_26  and  C19_27 
REMARK   17  A    between atoms: C20_28  and  C19_27 
REMARK   18  A    between atoms: C19_27  and  O21_29 
REMARK   19  A    between atoms: O21_29  and  C22_30 
REMARK   20  A    between atoms: C22_30  and  C23_31 
REMARK   21  A    between atoms: C23_31  and  C24_32 
REMARK   22  A    between atoms: C24_32  and  C25_33 
REMARK   23  A    between atoms: C25_33  and  C26_34 
ROOT
ATOM      1  N   UNK C  11      28.536 -42.247  40.877  1.00 65.49    -0.066 N 
ATOM      2  H1  UNK C  11      29.226 -41.637  41.290  1.00  0.00     0.275 HD
ATOM      3  H2  UNK C  11      28.764 -43.207  41.092  1.00  0.00     0.275 HD
ATOM      4  H3  UNK C  11      28.530 -42.119  39.875  1.00  0.00     0.275 HD
ENDROOT
BRANCH   1   5
ATOM      5  CA  UNK C  11      27.220 -41.928  41.415  1.00 62.30     0.283 C 
BRANCH   5   6
ATOM      6  C   UNK C  11      27.284 -42.164  42.899  1.00 64.07     0.249 C 
ATOM      7  O   UNK C  11      28.245 -42.745  43.375  1.00 67.54    -0.271 OA
ATOM      8  N   UNK C  12      26.275 -41.732  43.642  1.00 61.26    -0.343 N 
ATOM      9  H   UNK C  12      25.515 -41.215  43.224  1.00  0.00     0.163 HD
BRANCH   8  10
ATOM     10  CA  UNK C  12      26.279 -42.014  45.071  1.00 79.27     0.209 C 
BRANCH  10  11
ATOM     11  C   UNK C  12      25.040 -42.751  45.545  1.00 96.47     0.198 C 
ATOM     12  O1  UNK C  13      25.218 -43.570  46.457  1.00 98.45    -0.646 OA
ATOM     13  O   UNK C  12      23.947 -42.535  45.032  1.00 98.76    -0.646 OA
ENDBRANCH  10  11
BRANCH  10  14
ATOM     14  CB  UNK C  12      26.499 -40.746  45.895  1.00 65.91     0.200 C 
BRANCH  14  15
ATOM     15  OG  UNK C  12      25.913 -39.629  45.275  1.00 72.03    -0.398 OA
ATOM     16  HG  UNK C  12      26.065 -38.848  45.812  1.00  0.00     0.209 HD
ENDBRANCH  14  15
ENDBRANCH  10  14
ENDBRANCH   8  10
ENDBRANCH   5   6
BRANCH   5  17
ATOM     17  CB  UNK C  11      26.166 -42.844  40.798  1.00 62.83     0.116 C 
BRANCH  17  18
ATOM     18  SG  UNK C  11      26.205 -42.915  39.006  1.00 77.56    -0.164 SA
BRANCH  18  19
HETATM   19  C20 UNK C 581      25.451 -41.345  38.619  1.00 78.99     0.108 C 
BRANCH  19  20
HETATM   20  C19 UNK C 581      25.402 -41.170  37.236  1.00 77.33     0.165 C 
BRANCH  20  21
HETATM   21  O21 UNK C 581      24.791 -40.067  36.909  1.00 79.60    -0.313 OA
BRANCH  21  22
HETATM   22  C22 UNK C 581      25.385 -39.269  35.922  1.00 71.85     0.259 C 
HETATM   23  O38 UNK C 581      26.355 -39.657  35.358  1.00 64.39    -0.265 OA
BRANCH  22  24
HETATM   24  C23 UNK C 581      24.798 -37.859  35.712  1.00 67.97     0.111 C 
BRANCH  24  25
HETATM   25  C24 UNK C 581      24.568 -37.412  34.252  1.00 63.67     0.010 C 
BRANCH  25  26
HETATM   26  C25 UNK C 581      23.462 -38.126  33.438  1.00 67.15     0.000 C 
BRANCH  26  27
HETATM   27  C26 UNK C 581      22.338 -38.828  34.215  1.00 60.72    -0.005 C 
HETATM   28  C27 UNK C 581      21.045 -37.996  34.327  1.00 55.00     0.005 C 
ENDBRANCH  26  27
ENDBRANCH  25  26
ENDBRANCH  24  25
ENDBRANCH  22  24
ENDBRANCH  21  22
ENDBRANCH  20  21
BRANCH  20  29
HETATM   29  C18 UNK C 581      24.564 -42.308  36.629  1.00 68.25     0.212 C 
BRANCH  29  30
HETATM   30  O17 UNK C 581      23.546 -41.948  35.721  1.00 61.92    -0.319 OA
BRANCH  30  31
HETATM   31  C16 UNK C 581      23.109 -42.942  34.822  1.00 59.74     0.258 C 
HETATM   32  O39 UNK C 581      23.042 -44.075  35.168  1.00 63.98    -0.265 OA
BRANCH  31  33
HETATM   33  C15 UNK C 581      22.775 -42.553  33.365  1.00 54.89     0.111 C 
BRANCH  33  34
HETATM   34  C14 UNK C 581      21.805 -43.500  32.625  1.00 58.40     0.010 C 
BRANCH  34  35
HETATM   35  C13 UNK C 581      20.395 -42.892  32.416  1.00 67.63     0.000 C 
BRANCH  35  36
HETATM   36  C12 UNK C 581      19.162 -43.782  32.679  1.00 64.29    -0.005 C 
HETATM   37  C11 UNK C 581      17.833 -43.169  32.205  1.00 62.36     0.005 C 
ENDBRANCH  35  36
ENDBRANCH  34  35
ENDBRANCH  33  34
ENDBRANCH  31  33
ENDBRANCH  30  31
ENDBRANCH  29  30
ENDBRANCH  20  29
ENDBRANCH  19  20
ENDBRANCH  18  19
ENDBRANCH  17  18
ENDBRANCH   5  17
ENDBRANCH   1   5
TORSDOF 23
